<?php
// MODPATH/APB/init.php
defined('APB_VERSION') OR define('APB_VERSION', '2.0.0');

// Дополнительная инициализация модуля APB
